/*--------------------------------*- C++ -*----------------------------------*\
| =========                 |                                                 |
| \\      /  F ield         | OpenFOAM: The Open Source CFD Toolbox           |
|  \\    /   O peration     | Version:  v2206                                 |
|   \\  /    A nd           | Website:  www.openfoam.com                      |
|    \\/     M anipulation  |                                                 |
\*---------------------------------------------------------------------------*/
FoamFile
{
    version     2.0;
    format      ascii;
    class       volScalarField;
    object      epsilon;
}
// * * * * * * * * * * * * * * * * * * * * * * * * * * * * * * * * * * * * * //

dimensions      [0 2 -3 0 0 0 0];

internalField   uniform 200;

boundaryField
{
    inlet
    {
        type            turbulentMixingLengthDissipationRateInlet;
        mixingLength    0.01;
        value           $internalField;
    }
    
    outlet
    {
        type            inletOutlet;
        value           $internalField;
        inletValue      $internalField;
    }
 
    
    ami1
    {
        type            cyclicAMI;
        value           $internalField;
    }
    
    wall1in
    {
        type            epsilonWallFunction;
        value           $internalField;
    }
    
    wall1out
    {
        type            epsilonWallFunction;
        value           $internalField;
    }
    
    wall2in
    {
        type            epsilonWallFunction;
        value           $internalField;
    }    

    wall2out
    {
        type            epsilonWallFunction;
        value           $internalField;
    }
    
    ami2
    {
        type            cyclicAMI;
        value           $internalField;
    }


}


// ************************************************************************* //
