/*--------------------------------*- C++ -*----------------------------------*\
| =========                 |                                                 |
| \\      /  F ield         | OpenFOAM: The Open Source CFD Toolbox           |
|  \\    /   O peration     | Version:  v2206                                 |
|   \\  /    A nd           | Website:  www.openfoam.com                      |
|    \\/     M anipulation  |                                                 |
\*---------------------------------------------------------------------------*/
FoamFile
{
    version     2.0;
    format      ascii;
    class       volScalarField;
    object      p;
}
// * * * * * * * * * * * * * * * * * * * * * * * * * * * * * * * * * * * * * //

dimensions      [1 -1 -2 0 0 0 0];

internalField   uniform 1.0e5;

boundaryField
{
    inlet
    {
        type            uniformTotalPressure;
        gamma           1.4;

        p0              table
        (
            (0         1.0e5)
            (0.01      1.2e5)
        );
    }
    
    

    outlet
    {
        type            fixedValue;
        value           $internalField;
    }
    
    wall1out
    {
        type            zeroGradient;
    }
    
    wall1in
    {
        type            zeroGradient;
    }
    
    ami2
    {
        type            cyclicAMI;
        value           $internalField;
    }
    
    wall2out
    {
        type            zeroGradient;
    }
    
    wall2in
    {
        type            zeroGradient;
    }
    
    ami1
    {
        type            cyclicAMI;
        value           $internalField;
    }
    

}


// ************************************************************************* //
